aa                                       ! 32 CHARACTER ALPHANUMERIC RUN DESCRIPTION
aa                                       ! 24 CHARACTER ALPHANUMERIC RUN IDENTIFICATION
1                                        ! NFOVER - NONFATAL ERROR OVERRIDE OPTION
1                                        ! NABOUT - ABREVIATED OUTPUT OPTION PARAMETER
2000                                     ! NSCREEN - OUTPUT TO UNIT 6 PARAMETER
67                                        ! IHOT - HOT START OPTION PARAMETER
2                                        ! ICS - COORDINATE SYSTEM OPTION PARAMETER
0                                        ! IM - MODEL RUN TYPE: 0,10,20,30 = 2DDI, 1,11,21,31 = 3D(VS), 2 = 3D(DSS)
1                                        ! NOLIBF - NONLINEAR BOTTOM FRICTION OPTION
2                                        ! NOLIFA - OPTION TO INCLUDE FINITE AMPLITUDE TERMS
1                                        ! NOLICA - OPTION TO INCLUDE CONVECTIVE ACCELERATION TERMS
1                                        ! NOLICAT - OPTION TO CONSIDER TIME DERIVATIVE OF CONV ACC TERMS
1                                        ! NWP - Number of nodal attributes.
mannings_n_at_sea_floor
1                                        ! NCOR - VARIABLE CORIOLIS IN SPACE OPTION PARAMETER
0                                        ! NTIP - TIDAL POTENTIAL OPTION PARAMETER
319 1                                      ! NWS - WIND STRESS AND BAROMETRIC PRESSURE OPTION PARAMETER
1                                        ! NRAMP - RAMP FUNCTION OPTION
9.80665                                  ! G - ACCELERATION DUE TO GRAVITY - DETERMINES UNITS
0.00230                                  ! TAU0 - WEIGHTING FACTOR IN GWCE
0.5                                      ! DT - TIME STEP (IN SECONDS)
0.00000                                  ! STATIM - STARTING SIMULATION TIME IN DAYS
0.00000                                  ! REFTIME - REFERENCE TIME (IN DAYS) FOR NODAL FACTORS AND EQUILIBRIUM ARGS
2016 10 02 00 1 0.7 600
10.75                                        ! RNDAY - TOTAL LENGTH OF SIMULATION (IN DAYS)
3                                        ! DRAMP - DURATION OF RAMP FUNCTION (IN DAYS)
0.350000 0.300000 0.350000               ! TIME WEIGHTING FACTORS FOR THE GWCE EQUATION
0.010000 12 12 0.010000                  ! H0 - MINIMUM WATER DEPTH
130.905493 30.513806                     ! SLAM0, SFEA0 - LONGITUDE AND LATITUDE ON WHICH THE CPP COORDINATE PROJECTION IS CENTERED
0.002500                                 ! FFACTOR - 2DDI BOTTOM FRICTION COEFFICIENT
10.000000                                ! EVM - SPATIALLY CONSTANT HORIZONTAL EDDY VISCOSITY FOR THE MOMENTUM EQUATIONS
0.000100                                 ! CORI - CONSTANT CORIOLIS COEFFICIENT
0                                        ! NTIF - NUMBER OF TIDAL POTENTIAL CONSTITUENTS
8                                        ! NBFR - NUMBER OF PERIODIC FORCING FREQUENCIES ON ELEVATION SPECIFIED BOUNDARIES
M2                                       
1.405189027399357e-04  1.03574     156.05  !seok 광역실험한 값과 factor 동일
S2                     
1.454441043328608e-04  1.00000       0.00
N2                     
1.378796999749406e-04  1.03574      94.37
K2                     
1.458423170567631e-04  0.76005       2.41
K1                     
7.292115852838157e-05  0.89003     270.90
O1                     
6.759774405845248e-05  0.81986     247.00
P1                     
7.252294585779876e-05  1.00000      85.75
Q1                     
6.495854130484220e-05  0.81986     185.33
M2	
0.2254	346.4429
0.2226	346.8590
0.2199	347.2215
0.2172	347.4940
0.2147	347.6824
0.2123	347.8366
0.2100	347.9480
0.2078	348.0418
0.2056	348.1270
0.2035	348.2247
0.2013	348.3124
0.1992	348.4336
0.1970	348.5644
0.1947	348.7503
0.1920	348.9658
0.1885	349.1754
0.1844	349.4154
0.1796	349.6999
0.1745	350.1661
0.1688	350.6770
0.1626	351.3668
0.0376	339.5620
0.0340	335.9840
0.0415	342.5332
0.0454	345.0680
0.0495	347.1554
0.0539	349.0011
0.0583	350.5228
0.0628	351.7266
0.0675	352.8008
0.0723	353.5832
0.0772	354.2550
0.0824	354.6807
0.0878	354.9913
0.0933	355.1440
0.0988	355.1420
0.1045	355.0776
0.1106	354.8465
0.1169	354.6087
0.1231	354.1873
0.1293	353.8278
0.1356	353.4091
0.1422	352.9852
0.1490	352.4833
0.1558	351.9187
0.0303	331.8221
S2	
0.0930	15.5723
0.0918	15.9126
0.0908	16.2068
0.0897	16.4200
0.0887	16.5512
0.0878	16.6554
0.0868	16.7232
0.0860	16.7772
0.0851	16.8296
0.0843	16.8950
0.0835	16.9577
0.0826	17.0535
0.0818	17.1654
0.0809	17.3332
0.0798	17.5364
0.0785	17.7378
0.0769	17.9701
0.0750	18.2546
0.0730	18.7116
0.0708	19.2221
0.0683	19.8955
0.0167	12.2751
0.0151	9.5035
0.0184	14.5787
0.0201	16.5529
0.0219	18.1668
0.0238	19.6083
0.0256	20.7939
0.0276	21.7140
0.0295	22.5434
0.0315	23.1181
0.0336	23.6063
0.0358	23.8794
0.0380	24.0605
0.0403	24.1059
0.0425	24.0152
0.0449	23.8743
0.0474	23.5828
0.0500	23.2906
0.0525	22.8340
0.0550	22.4336
0.0575	21.9818
0.0602	21.5228
0.0629	21.0074
0.0656	20.4471
0.0135	6.3329
N2	
0.0440	335.0369
0.0434	335.4983
0.0429	335.9109
0.0424	336.2385
0.0420	336.4822
0.0415	336.6948
0.0410	336.8660
0.0406	337.0187
0.0402	337.1632
0.0398	337.3191
0.0393	337.4634
0.0389	337.6415
0.0384	337.8259
0.0380	338.0606
0.0374	338.3212
0.0367	338.5709
0.0359	338.8463
0.0349	339.1616
0.0339	339.6656
0.0327	340.2088
0.0315	340.9343
0.0068	328.8092
0.0061	324.8848
0.0075	332.0095
0.0083	334.6973
0.0091	336.8769
0.0100	338.7835
0.0108	340.3406
0.0117	341.5542
0.0126	342.6343
0.0136	343.4046
0.0145	344.0647
0.0155	344.4727
0.0166	344.7687
0.0177	344.9018
0.0188	344.8767
0.0199	344.7961
0.0211	344.5400
0.0223	344.2838
0.0235	343.8350
0.0248	343.4497
0.0260	343.0187
0.0273	342.5799
0.0287	342.0664
0.0301	341.4964
0.0054	320.2398
K2	
0.0253	13.3261
0.0249	13.6524
0.0246	13.9451
0.0243	14.1335
0.0240	14.2631
0.0237	14.3703
0.0235	14.4458
0.0232	14.5120
0.0230	14.5541
0.0227	14.6245
0.0225	14.6839
0.0223	14.7648
0.0220	14.8836
0.0218	14.9866
0.0215	15.0196
0.0211	15.1158
0.0207	15.2968
0.0202	15.6135
0.0197	16.0915
0.0191	16.5613
0.0185	17.0582
0.0046	10.0920
0.0041	7.4433
0.0051	12.5728
0.0055	14.7265
0.0060	16.4665
0.0065	17.9580
0.0070	19.2338
0.0076	20.1989
0.0081	21.0789
0.0086	21.6911
0.0092	22.1691
0.0098	22.3840
0.0104	22.5583
0.0110	22.5735
0.0116	22.5027
0.0123	22.3485
0.0129	21.8150
0.0136	21.4944
0.0143	21.0219
0.0150	20.5600
0.0156	19.9378
0.0163	19.2943
0.0171	18.6326
0.0178	17.8537
0.0037	4.2078
K1	
0.0434	55.0757
0.0431	57.2645
0.0429	59.4245
0.0427	61.4943
0.0425	63.4750
0.0423	65.3908
0.0420	67.2274
0.0418	69.0137
0.0415	70.7349
0.0413	72.4550
0.0409	74.0763
0.0405	75.7447
0.0399	77.3350
0.0394	78.9801
0.0388	80.6458
0.0381	82.2479
0.0372	83.9209
0.0359	85.6793
0.0346	87.9323
0.0331	90.2453
0.0316	93.0122
0.0023	180.5447
0.0023	206.6420
0.0028	161.7955
0.0036	149.1343
0.0044	141.1696
0.0055	135.8670
0.0065	131.9681
0.0075	128.8648
0.0086	126.5635
0.0097	124.2053
0.0109	122.1974
0.0121	120.2000
0.0133	118.3418
0.0145	116.2810
0.0157	114.2384
0.0170	112.3024
0.0183	110.1507
0.0198	108.1038
0.0212	105.8221
0.0227	103.7570
0.0243	101.6558
0.0261	99.7661
0.0279	97.6804
0.0298	95.3292
0.0027	227.5808
O1	
0.0295	30.7731
0.0294	33.4415
0.0294	36.0590
0.0294	38.5745
0.0295	40.9733
0.0295	43.2837
0.0294	45.4917
0.0294	47.6314
0.0294	49.6980
0.0293	51.7581
0.0292	53.7162
0.0291	55.7324
0.0288	57.6865
0.0285	59.6463
0.0283	61.6076
0.0279	63.5252
0.0275	65.6021
0.0267	67.8498
0.0259	70.6645
0.0250	73.5897
0.0242	76.9362
0.0048	162.9007
0.0047	172.0605
0.0051	154.8941
0.0055	147.4925
0.0060	141.1638
0.0066	135.5493
0.0072	130.9406
0.0079	126.8514
0.0086	123.2697
0.0094	119.9193
0.0101	116.8662
0.0109	113.9031
0.0118	111.1319
0.0125	108.3176
0.0133	105.5570
0.0142	102.8616
0.0151	99.9034
0.0161	97.1088
0.0170	94.1664
0.0180	91.3342
0.0191	88.5141
0.0203	85.8760
0.0217	83.0030
0.0229	79.9176
0.0048	180.8751
P1	
0.0133	56.8795
0.0133	59.0877
0.0133	61.2615
0.0133	63.3549
0.0133	65.3289
0.0133	67.2432
0.0133	69.0726
0.0133	70.8483
0.0132	72.5748
0.0132	74.2969
0.0131	75.9323
0.0130	77.6255
0.0128	79.2490
0.0127	80.9355
0.0126	82.6686
0.0124	84.2982
0.0121	86.0141
0.0117	87.8330
0.0113	90.1567
0.0109	92.5805
0.0104	95.4567
0.0010	176.1100
0.0010	195.6355
0.0012	161.7859
0.0014	151.0578
0.0017	143.6380
0.0020	138.1802
0.0023	134.1010
0.0027	130.8451
0.0030	128.3206
0.0034	125.8767
0.0037	123.7862
0.0041	121.7541
0.0045	119.8591
0.0049	117.8297
0.0053	115.8170
0.0057	113.9199
0.0061	111.9015
0.0066	109.8938
0.0070	107.6722
0.0075	105.6684
0.0080	103.6633
0.0086	101.9149
0.0092	99.9416
0.0098	97.7065
0.0010	213.5398
Q1	
0.0053	24.3526
0.0053	27.1204
0.0054	29.8196
0.0054	32.4042
0.0055	34.8391
0.0055	37.1969
0.0055	39.4415
0.0056	41.6048
0.0056	43.7000
0.0056	45.7875
0.0056	47.7907
0.0056	49.8492
0.0056	51.8733
0.0056	53.8685
0.0056	55.8091
0.0056	57.6868
0.0055	59.7409
0.0054	62.0897
0.0053	64.9945
0.0051	68.0544
0.0050	71.4215
0.0013	147.2457
0.0013	153.7501
0.0014	141.5270
0.0015	136.1034
0.0016	131.3385
0.0017	126.8524
0.0018	123.0691
0.0020	119.6204
0.0021	116.4637
0.0023	113.5055
0.0024	110.7527
0.0025	108.0205
0.0027	105.4366
0.0029	102.8479
0.0030	100.2460
0.0032	97.6646
0.0033	94.7795
0.0035	92.0216
0.0037	89.1537
0.0039	86.3200
0.0041	83.4792
0.0043	80.7548
0.0045	77.7470
0.0048	74.5652
0.0013	160.1789
90                                       ! ANGINN - MINIMUM ANGLE FOR TANGENTIAL FLOW
0 0.000000 0.000000 0                    ! NOUTE, TOUTSE, TOUTFE, NSPOOLE - FORT 61 OPTIONS
0                                        ! NSTAE - NUMBER OF ELEVATION RECORDING STATIONS, FOLLOWED BY LOCATIONS ON PROCEEDING LINES
0 0.000000 0.000000 0                    ! NOUTV, TOUTSV, TOUTFV, NSPOOLV - FORT 62 OPTIONS
0                                        ! NSTAV - NUMBER OF VELOCITY RECORDING STATIONS, FOLLOWED BY LOCATIONS ON PROCEEDING LINES
0 0.000000 0.000000 0
0
1 7.000000 10.750000 3600                    ! NOUTGE, TOUTSGE, TOUTFGE, NSPOOLGE - GLOBAL ELEVATION OUTPUT INFO (UNIT 63)
1 7.000000 10.750000 3600                    ! NOUTGV, TOUTSGV, TOUTFGV, NSPOOLGV - GLOBAL VELOCITY OUTPUT INFO (UNIT 64)
1 7.000000 10.750000 3600
0                                        ! NHARF - NUMBER OF FREQENCIES IN HARMONIC ANALYSIS
0.000000 0.000000 0 0.000000             ! THAS,THAF,NHAINC,FMV - HARMONIC ANALYSIS PARAMETERS
0 0 0 0                                  ! NHASE,NHASV,NHAGE,NHAGV - CONTROL HARMONIC ANALYSIS AND OUTPUT TO UNITS 51,52,53,54
1 1209600                                      ! NHSTAR,NHSINC - HOT START FILE GENERATION PARAMETERS
1 0 1e-005 50                            ! ITITER, ISLDIA, CONVCR, ITMAX - ALGEBRAIC SOLUTION PARAMETERS
1                                        ! NUMBER OF PROCESSORS